LTspice 26.0.1 for Windows
Circuit: D:\WORKSPACE\3.EEE\0 Low Pass Filter RC\LTSPICE Sim\low_pass_filter_rc.net
Start Time: Sun Mar 29 17:39:30 2026
solver = Normal
Maximum thread count: 16
tnom = 27
temp = 27
method = trap
.OP point found by inspection.
.OP point found by inspection.
Total elapsed time: 0.021 seconds.

Files loaded:
D:\WORKSPACE\3.EEE\0 Low Pass Filter RC\LTSPICE Sim\low_pass_filter_rc.net

max_v_out: MAX(mag(V(out)))=(-0.000171449204949dB,0°) FROM 1 TO 1000000
fc: mag(V(out)) =(max_v_out / sqrt(2)) AT 159.161319062
