LTspice 26.0.1 for Windows
Circuit: D:\WORKSPACE\3.EEE\Low Pass Filter RC\LTSPICE Sim\low_pass_filter_rc.net
Start Time: Tue Mar 17 20:54:32 2026
solver = Normal
Maximum thread count: 16
tnom = 27
temp = 27
method = trap
.OP point found by inspection.
.OP point found by inspection.
Total elapsed time: 0.031 seconds.

Files loaded:
D:\WORKSPACE\3.EEE\Low Pass Filter RC\LTSPICE Sim\low_pass_filter_rc.net

